%nprocshared=20
%mem=5GB
%chk=/gss_gpfs_scratch/harms.n/QMscratch/[O]CCC=O+[O][O]_[O]C[CH]C=O+[O]O
# m062x/6-311+g(2df,2p) opt=(ts,calcfc,noeigentest) freq

[O]CCC=O+[O][O]_[O]C[CH]C=O+[O]O

0   4
C         0.744060  -0.125673   0.000333
C         2.261657   0.069055  -0.011252
C         0.033186   1.162981   0.309604
H         0.503077  -0.843658   0.789334
H         0.390975  -0.516086  -0.952119
O         2.978619  -1.090122   0.000344
H         2.586190   0.703836  -0.847404
H         2.588638   0.612246   0.894869
O        -0.791599   1.672452  -0.393904
H         0.325709   1.645387   1.265080
O        -2.258649  -1.025594  -0.393224
O        -3.006872  -0.586725   0.419050

