%nprocshared=20
%mem=5GB
%chk=/gss_gpfs_scratch/harms.n/QMscratch/[O]C1C=CC=C1+[O][O]_[O]O+[O][C]1C=CC=C1
# m062x/6-311+g(2df,2p) opt=(ts,calcfc,noeigentest) freq

[O]C1C=CC=C1+[O][O]_[O]O+[O][C]1C=CC=C1

0   4
C         1.002549  -0.629194  -0.071107
C         0.648300   0.091310   1.214091
C         0.824969   0.434603  -1.135120
C         0.247496   1.325501   0.907050
C         0.357305   1.538736  -0.551661
O         2.125475  -1.390141  -0.097255
H         0.193288  -1.378508  -0.240761
H         0.701127  -0.376145   2.184484
H         1.030004   0.263091  -2.179787
H        -0.106189   2.072107   1.602343
H         0.094882   2.460050  -1.049782
O        -2.356758  -0.726312   0.454324
O        -2.318319  -0.334339  -0.669071

