%nprocshared=20
%mem=5GB
# m062x/6-311+g(2df,2p) Opt=(ModRedun,Loose) Int(Grid=SG1)

[O]CCC=O+[O][O]_[O]C[CH]C=O+[O]O

0   4
C        -0.187500   0.100700   0.449300
C        -1.277000  -0.632400  -0.278800
C        -0.176600   1.527400   0.133400
H         0.890800  -0.366300  -0.071900
H        -0.074400  -0.163300   1.501000
O        -1.136800  -2.008300  -0.249900
H        -2.195700  -0.386600   0.265100
H        -1.309400  -0.236100  -1.312100
O        -0.014500   2.381300   1.003100
H         0.148400   1.827900  -0.866500
O         2.032700  -0.835500  -0.340800
O         3.300100  -1.208800  -0.231900

1 4 F
1 11 F
4 11 F

