%nprocshared=20
%mem=5GB
# m062x/6-311+g(2df,2p) opt=(ts,calcfc,noeigentest)

[O]CCC=O+[O][O]_[O]C[CH]C=O+[O]O

0   4
C        -0.656530   0.058244  -0.315738
C        -1.049291   1.405685   0.217852
C        -1.361063  -1.029083   0.360086
H         0.571406  -0.062773   0.044811
H        -0.590869  -0.008596  -1.401915
O        -0.200485   2.426557  -0.170657
H        -2.030084   1.610476  -0.225273
H        -1.121929   1.317352   1.319094
O        -1.824474  -1.983967  -0.260596
H        -1.091543  -1.247179   1.397158
O         1.812561  -0.269325   0.159973
O         3.045439  -0.700560  -0.067105

1 2 F
1 3 F
1 5 F
1 6 F
1 7 F
1 8 F
1 9 F
1 10 F
1 12 F
2 3 F
2 4 F
2 5 F
2 6 F
2 7 F
2 8 F
2 9 F
2 10 F
2 11 F
2 12 F
3 4 F
3 5 F
3 6 F
3 7 F
3 8 F
3 9 F
3 10 F
3 11 F
3 12 F
4 5 F
4 6 F
4 7 F
4 8 F
4 9 F
4 10 F
4 12 F
5 6 F
5 7 F
5 8 F
5 9 F
5 10 F
5 11 F
5 12 F
6 7 F
6 8 F
6 9 F
6 10 F
6 11 F
6 12 F
7 8 F
7 9 F
7 10 F
7 11 F
7 12 F
8 9 F
8 10 F
8 11 F
8 12 F
9 10 F
9 11 F
9 12 F
10 11 F
10 12 F
11 12 F

