%nprocshared=20
%mem=5GB
%chk=/gss_gpfs_scratch/harms.n/QMscratch/[O]O+[O]O_OO+[O][O]
# m062x/6-311+g(2df,2p) opt=(ts,calcfc,noeigentest) freq

[O]O+[O]O_OO+[O][O]

0   3
O        -1.247642  -0.586872  -0.090795
O        -1.313438   0.667233   0.075860
H        -0.209824  -0.839089  -0.032293
O         1.313389   0.582417  -0.181642
O         1.138594  -0.693114   0.123115
H         1.082602   1.081775   0.619984

