%nprocshared=20
%mem=5GB
# m062x/6-311+g(2df,2p) Opt=(ModRedun,Loose) Int(Grid=SG1)

[O]O+[O]OCCCCO_OO+[O]OC[CH]CCO

0   3
C        -0.719900  -0.194500   0.412400
C         0.730300  -0.063200   0.714300
C        -1.076800  -1.154800  -0.663000
C         1.593000  -0.520400  -0.422400
O        -1.608400  -2.294100  -0.080100
O         2.901400  -0.084500  -0.159700
H        -1.016000   0.984000  -0.130000
H        -1.389900  -0.176300   1.271800
H         0.986000   1.010200   0.904100
H         0.935700  -0.590800   1.657200
H        -1.884100  -0.730000  -1.312000
H        -0.227800  -1.359400  -1.325400
H         1.273400   0.020700  -1.334400
H         1.641500  -1.612800  -0.543400
O        -0.914900  -2.535500   1.013900
H         3.001500   0.152300   0.799500
O        -1.470100   3.372300  -0.608100
O        -1.365800   2.061200  -0.522200
H        -1.389000   3.715400   0.327500

1 7 F
1 18 F
7 18 F

