%nprocshared=20
%mem=5GB
%chk=/gss_gpfs_scratch/harms.n/QMscratch/[O]O+[O]OCO_OO+[O]O[CH]O
# m062x/6-311+g(2df,2p) opt=(ts,calcfc,noeigentest) freq

[O]O+[O]OCO_OO+[O]O[CH]O

0   3
C        -0.741034   0.710489   0.501248
O        -1.526165  -0.480703   0.303960
O        -0.509289   1.401956  -0.617199
H         0.466649   0.263228   0.917275
H        -1.235113   1.284397   1.279576
O        -0.888553  -1.357146  -0.414996
H         0.199101   0.965897  -1.122157
O         1.793385  -0.157751  -0.525496
O         1.569915  -0.122496   0.839838
H         1.501224  -1.047331  -0.771035

