%nprocshared=20
%mem=5GB
%chk=/gss_gpfs_scratch/harms.n/QMscratch/[O]O+[O]OC=O_OO+[O]O[C]=O
# m062x/6-311+g(2df,2p) opt=(ts,calcfc,noeigentest) freq

[O]O+[O]OC=O_OO+[O]O[C]=O

0   3
C        -0.527131   0.619699  -0.028763
O        -0.835064  -0.752860  -0.181214
O        -1.272684   1.474492   0.222639
H         0.833119   0.659564  -0.244819
O        -2.102008  -1.018339   0.004886
O         2.274925  -0.540483   0.449889
O         1.945036   0.457680  -0.432800
H         2.248030  -1.341671  -0.089799

