%nprocshared=20
%mem=5GB
%chk=/gss_gpfs_scratch/harms.n/QMscratch/[O]O+[O]OCCCCO_OO+[O]OC[CH]CCO
# m062x/6-311+g(2df,2p) opt=(ts,calcfc,noeigentest) freq

[O]O+[O]OCCCCO_OO+[O]OC[CH]CCO

0   3
C         0.177024  -0.810679   0.620147
C        -0.117153   0.651511   0.824288
C         1.178570  -1.234850  -0.413875
C        -0.370977   1.434658  -0.458331
O         2.538566  -0.926396   0.003903
O        -0.771955   2.760872  -0.180033
H        -0.952885  -1.298114   0.099154
H         0.258911  -1.382773   1.542864
H        -0.995255   0.754880   1.466046
H         0.720711   1.109942   1.364923
H         1.187893  -2.315593  -0.540090
H         1.022037  -0.752819  -1.376843
H        -1.191413   0.977625  -1.012441
H         0.520504   1.427379  -1.091068
O         2.778936   0.344105  -0.052050
H        -0.023706   3.242956   0.177438
O        -2.874506  -0.661349   0.001524
O        -1.976867  -1.638444  -0.378657
H        -3.304976  -1.037617   0.779146

