%nprocshared=20
%mem=5GB
# m062x/6-311+g(2df,2p) Opt=(ModRedun,Loose) Int(Grid=SG1)

[OH]+[O]OC=O_O=COO+[O]

0   3
O         2.943200   0.149000  -0.490400
H         1.748900  -0.109200  -0.055700
C        -1.479900  -0.030400  -0.008700
O        -0.410400  -0.440800   0.791300
O        -1.447100   1.182000  -0.376900
H        -2.198700  -0.743200  -0.416300
O         0.844000  -0.007300   0.556600

1 2 F
1 7 F
2 7 F

