%nprocshared=20
%mem=5GB
# m062x/6-311+g(2df,2p) Opt=(ModRedun,Loose) Int(Grid=SG1)

[OH]+[O]C1C=CC=CC=1_OC1C=CC=CC=1+[O]

0   3
O         4.072300   0.305300   0.421000
H         2.981000   0.082200  -0.015600
C         0.621000   0.183300  -0.662900
C        -0.140500   1.248700  -0.201500
C        -1.384000   1.015500   0.367200
C        -1.802600  -0.271600   0.679700
C        -1.198300  -1.287600  -0.050500
C        -0.011300  -1.049200  -0.730900
O         2.015000   0.270000  -0.601700
H         0.261400   2.262800  -0.211700
H        -2.026900   1.827900   0.697700
H        -2.273500  -0.499200   1.634900
H        -1.596600  -2.282100  -0.013500
H         0.483100  -1.805900  -1.312200

1 2 F
1 9 F
2 9 F

