%nprocshared=20
%mem=5GB
# m062x/6-311+g(2df,2p) opt=(ts,calcfc,noeigentest)

[OH]+[O]C1C=CC=CC=1_OC1C=CC=CC=1+[O]

0   3
O        -3.018966   0.496881   0.688294
H        -2.444029  -0.169862  -0.121787
C        -0.401371  -0.376042  -0.283106
C         0.590569  -1.320944   0.073526
C         1.882911  -0.902868   0.290573
C         2.203011   0.454112   0.193506
C         1.221022   1.402105  -0.113202
C        -0.071652   1.000569  -0.348506
O        -1.592354  -0.787860  -0.574188
H         0.294089  -2.356674   0.154413
H         2.650512  -1.617036   0.551299
H         3.223638   0.775030   0.355095
H         1.481658   2.450130  -0.158509
H        -0.862235   1.704651  -0.570094

1 3 F
1 4 F
1 5 F
1 6 F
1 7 F
1 8 F
1 10 F
1 11 F
1 12 F
1 13 F
1 14 F
2 3 F
2 4 F
2 5 F
2 6 F
2 7 F
2 8 F
2 10 F
2 11 F
2 12 F
2 13 F
2 14 F
3 4 F
3 5 F
3 6 F
3 7 F
3 8 F
3 9 F
3 10 F
3 11 F
3 12 F
3 13 F
3 14 F
4 5 F
4 6 F
4 7 F
4 8 F
4 9 F
4 10 F
4 11 F
4 12 F
4 13 F
4 14 F
5 6 F
5 7 F
5 8 F
5 9 F
5 10 F
5 11 F
5 12 F
5 13 F
5 14 F
6 7 F
6 8 F
6 9 F
6 10 F
6 11 F
6 12 F
6 13 F
6 14 F
7 8 F
7 9 F
7 10 F
7 11 F
7 12 F
7 13 F
7 14 F
8 9 F
8 10 F
8 11 F
8 12 F
8 13 F
8 14 F
9 10 F
9 11 F
9 12 F
9 13 F
9 14 F
10 11 F
10 12 F
10 13 F
10 14 F
11 12 F
11 13 F
11 14 F
12 13 F
12 14 F
13 14 F

