%nprocshared=20
%mem=5GB
%chk=/gss_gpfs_scratch/harms.n/QMscratch/[OH]+[O]C1C=CC=CC=1_OC1C=CC=CC=1+[O]
# m062x/6-311+g(2df,2p) opt=(ts,calcfc,noeigentest) freq

[OH]+[O]C1C=CC=CC=1_OC1C=CC=CC=1+[O]

0   3
O        -2.974078   0.547449   0.721814
H        -2.354349  -0.139971  -0.206442
C        -0.398798  -0.392160  -0.288788
C         0.590848  -1.317630   0.076243
C         1.879783  -0.883490   0.303887
C         2.191942   0.471701   0.207205
C         1.207467   1.394896  -0.133048
C        -0.082317   0.974007  -0.390272
O        -1.617940  -0.836625  -0.558702
H         0.312967  -2.358910   0.159155
H         2.648671  -1.595740   0.569607
H         3.201803   0.807116   0.398372
H         1.453504   2.445251  -0.205158
H        -0.860004   1.671710  -0.671787

