%nprocshared=20
%mem=5GB
# m062x/6-311+g(2df,2p) opt=(ts,calcfc,noeigentest)

[OH]+[O]OC=O_O=COO+[O]

0   3
O        -2.667470   0.487553   0.214667
H        -1.499725  -0.063550   0.093661
C         1.479633  -0.016409   0.360174
O         0.551519  -0.980756   0.005865
O         1.556761   1.029265  -0.250680
H         2.064609  -0.223340   1.254503
O        -0.621146  -0.487893  -0.408504

1 3 F
1 4 F
1 5 F
1 6 F
2 3 F
2 4 F
2 5 F
2 6 F
3 4 F
3 5 F
3 6 F
3 7 F
4 5 F
4 6 F
4 7 F
5 6 F
5 7 F
6 7 F

