%nprocshared=20
%mem=5GB
%chk=/gss_gpfs_scratch/harms.n/QMscratch/[OH]+[O]OC=O_O=COO+[O]
# m062x/6-311+g(2df,2p) opt=(ts,calcfc,noeigentest) freq

[OH]+[O]OC=O_O=COO+[O]

0   3
O        -1.848720  -0.652142  -0.312595
H        -1.188914   0.154707   0.280706
C         1.202369  -0.249524  -0.211260
O         0.580138   0.960727  -0.323473
O         0.773196  -1.174277   0.388562
H         2.124235  -0.200014  -0.798853
O        -0.523306   1.058498   0.470719

