%nprocshared=20
%mem=5GB
# m062x/6-311+g(2df,2p) opt=(verytight,gdiis) freq IOP(2/16=3)

InChI=1S/C5H11O/c1-5(2,3)4-6/h4H2,1-3H3/u6

0   2
C         0.0066    0.0001   -0.0011
C         1.5054   -0.2287   -0.2774
C        -0.8079   -0.4639   -1.2254
C        -0.4087   -0.8216    1.2359
C        -0.2337    1.5060    0.2568
O        -1.5829    1.7646    0.5132
H         1.8327    0.3499   -1.1683
H         2.1182    0.0941    0.5920
H         1.7107   -1.3046   -0.4671
H        -0.5306    0.1255   -2.1260
H        -1.8974   -0.3378   -1.0472
H        -0.6161   -1.5378   -1.4388
H        -1.4930   -0.7002    1.4462
H        -0.2088   -1.9028    1.0725
H         0.1601   -0.4935    2.1326
H         0.3650    1.8478    1.1286
H         0.0803    2.1029   -0.6266

