%nprocshared=20
%mem=5GB
# m062x/6-311+g(2df,2p) opt=(verytight,gdiis) freq IOP(2/16=3)

InChI=1S/C8H7O/c9-7-6-8-4-2-1-3-5-8/h1-7H/u2

0   2
C         0.3995    0.2416    0.3623
C        -0.2281   -0.8033    1.0550
C        -0.3187    0.9625   -0.6057
C         1.8368    0.5562    0.6394
C        -1.5653   -1.1174    0.7908
C        -2.2788   -0.3929   -0.1689
C        -1.6556    0.6457   -0.8673
C         2.7221   -0.0746   -0.3847
H         2.0063    1.6537    0.6700
H         0.3174   -1.3729    1.7975
H        -2.0478   -1.9232    1.3287
H        -3.3132   -0.6375   -0.3727
H        -2.2078    1.2038   -1.6123
H         0.1567    1.7656   -1.1552
O         3.5101   -0.9449   -0.0545
H         2.6664    0.2375   -1.4227

