%nprocshared=20
%mem=5GB
# m062x/6-311+g(2df,2p) opt=(verytight,gdiis) freq IOP(2/16=3)

InChI=1S/C2H5O/c1-3-2/h1H2,2H3/u1

0   2
C        -1.0002   -0.0812    0.1891
C         1.2360    0.0940   -0.0641
O         0.0245    0.0304   -0.7654
H        -1.0279    0.8102    0.8565
H        -0.8928   -1.0139    0.7885
H        -1.9734   -0.1335   -0.3410
H         1.7500    1.0494   -0.2981
H         1.8837   -0.7554   -0.3654

