%nprocshared=20
%mem=5GB
# m062x/6-311+g(2df,2p) opt=(verytight,gdiis) freq IOP(2/16=3)

InChI=1S/C6H11O/c1-3-4-5-6(2)7/h2-5H2,1H3/u2

0   2
C        -0.3246   -0.2698   -0.0586
C        -1.5752    0.4293    0.4866
C         0.9398    0.2413    0.6409
C        -2.8366   -0.0780   -0.2060
C         2.1655   -0.4325    0.0919
C         3.2045    0.3641   -0.6285
H        -1.6641    0.2406    1.5788
H        -1.4927    1.5262    0.3243
H        -0.2419   -0.0779   -1.1515
H        -0.4185   -1.3668    0.1020
H         0.8771    0.0397    1.7324
H         1.0208    1.3413    0.4976
H        -2.9572   -1.1694   -0.0374
H        -2.7842    0.1212   -1.2976
H        -3.7241    0.4453    0.2081
O         2.3218   -1.6350    0.2408
H         3.3127   -0.0071   -1.6691
H         4.1769    0.2874   -0.0986

