%nprocshared=20
%mem=5GB
# m062x/6-311+g(2df,2p) opt=(verytight,gdiis) freq IOP(2/16=3)

InChI=1S/C3H6O/c1-2-4-3-1/h1-3H2

0   1
C         0.0568    0.7832    0.0117
C        -1.0218   -0.2650   -0.0767
C         0.9727   -0.4119    0.0666
O        -0.0960   -1.3228   -0.0198
H         0.1676    1.3772   -0.9213
H         0.0310    1.3589    0.9623
H        -1.6948   -0.2711    0.8090
H        -1.5600   -0.2530   -1.0502
H         1.6397   -0.4887   -0.8204
H         1.5048   -0.5068    1.0388

