%nprocshared=20
%mem=5GB
# m062x/6-311+g(2df,2p) opt=(verytight,gdiis) freq IOP(2/16=3)

InChI=1S/C4H5/c1-3-4-2/h1,3-4H,2H2/u1

0   2
C        -0.2557   -0.5460   -0.2604
C         0.6947    0.3330    0.4326
C        -1.4571   -0.1085   -0.6258
C         1.8882   -0.1230    0.7885
H         0.0210   -1.5707   -0.4809
H         0.4284    1.3592    0.6580
H        -1.7695    0.9086   -0.4230
H        -2.1425   -0.7730   -1.1357
H         2.5926    0.5203    1.2995

