%nprocshared=20
%mem=5GB
# m062x/6-311+g(2df,2p) opt=(verytight,gdiis) freq IOP(2/16=3)

InChI=1S/C5H6O/c1-2-4-6-5-3-1/h1-2H,4-5H2/u2,3

0   3
C        -0.0262    1.0730   -0.5882
C        -1.3158   -0.6895    0.1903
C         1.3108    0.3473   -0.3963
C         1.1388   -0.9193    0.3966
O        -1.0469    0.1515   -0.9192
C        -0.0777   -1.4011    0.6738
H        -0.2909    1.6555    0.3245
H         0.0849    1.7967   -1.4219
H        -1.7738   -0.1129    1.0240
H        -2.0504   -1.4577   -0.1272
H         2.0317    1.0205    0.1142
H         2.0156   -1.4640    0.7295

