%nprocshared=20
%mem=5GB
# m062x/6-311+g(2df,2p) opt=(verytight,gdiis) freq IOP(2/16=3)

InChI=1S/C8H17O/c1-5-8(6-2)9-7(3)4/h7-8H,3,5-6H2,1-2,4H3/u3

0   2
C         0.8739   -0.1185   -0.0916
C         1.8265    0.9619   -0.6377
C         1.3268   -1.4972   -0.6147
C        -1.4026    0.0673    0.4938
C        -2.7702   -0.2170   -0.1247
C         1.4862    2.3548   -0.1126
C         0.5153   -2.6484   -0.0252
C        -1.4462    1.3742    1.2866
O        -0.4445    0.1568   -0.5486
H         0.9748   -0.1108    1.0216
H        -1.1835   -0.7693    1.1964
H         1.7842    0.9772   -1.7491
H         2.8704    0.7242   -0.3363
H         1.2392   -1.5269   -1.7230
H         2.3948   -1.6612   -0.3509
H        -3.0563    0.5949   -0.8275
H        -2.7367   -1.1753   -0.6850
H        -3.5438   -0.3010    0.6685
H         0.4966    2.6812   -0.4947
H         1.4771    2.3600    0.9981
H         2.2506    3.0796   -0.4637
H         0.9399   -3.6145   -0.3706
H        -0.5403   -2.5939   -0.3637
H         0.5547   -2.6227    1.0845
H        -2.1575    1.2969    2.1362
H        -1.7293    2.2274    0.6339

