%nprocshared=20
%mem=5GB
# m062x/6-311+g(2df,2p) opt=(verytight,gdiis) freq IOP(2/16=3)

InChI=1S/C5H7O/c1-3-5(6)4-2/h3H,1-2,4H2/u2

0   2
C         1.3213   -0.3206   -0.4056
C        -0.0436    0.2025   -0.7391
C        -1.2249   -0.2865   -0.0008
C         1.7219    0.0901    1.0042
C        -2.4574    0.1499   -0.2537
H         1.3178   -1.4288   -0.4811
H         2.0709    0.0750   -1.1253
O        -0.1715    1.0520   -1.6627
H        -1.0856   -1.0283    0.7763
H         1.7889    1.1964    1.0815
H         2.7058   -0.3543    1.2637
H        -2.6500    0.8906   -1.0194
H        -3.2936   -0.2378    0.3138

