%nprocshared=20
%mem=5GB
# m062x/6-311+g(2df,2p) opt=(verytight,gdiis) freq IOP(2/16=3)

InChI=1S/C6H12O/c1-3-6-5(2)4-7-6/h5-6H,3-4H2,1-2H3

0   1
C        -0.8427    0.3312    0.3607
C         0.1149   -0.0170   -0.7662
C         1.5907    0.2742   -0.4551
C        -1.3586    1.3506   -0.6310
C        -1.8424   -0.7794    0.6913
C         2.1738   -0.7653    0.4985
O        -0.4248    0.9698   -1.6153
H        -0.3712    0.7965    1.2547
H        -0.0350   -1.0318   -1.2013
H         2.1677    0.2501   -1.4045
H         1.7028    1.2886   -0.0129
H        -2.4006    1.1717   -0.9782
H        -1.1813    2.3973   -0.2993
H         2.0934   -1.7813    0.0566
H         1.6375   -0.7460    1.4707
H         3.2458   -0.5412    0.6813
H        -1.3201   -1.5953    1.2334
H        -2.6434   -0.3739    1.3443
H        -2.3065   -1.1988   -0.2278

