%nprocshared=20
%mem=5GB
# m062x/6-311+g(2df,2p) opt=(verytight,gdiis) freq IOP(2/16=3)

InChI=1S/C10H19O/c1-3-4-5-6-10-8-7-9(2)11-10/h8-10H,3-7H2,1-2H3/u8

0   2
C        -3.1465   -0.3266   -0.1772
C        -1.1395   -0.4662   -1.2458
C         0.1246    0.3199   -0.8707
C         1.1058   -0.5390   -0.0612
C         2.3725    0.2521    0.2854
C         3.3515   -0.6048    1.0961
C        -3.1513    0.7853   -1.2097
C        -3.6212    0.1635    1.1893
C         4.6137    0.1794    1.4431
C        -2.0375    0.3913   -2.1262
O        -1.8388   -0.8379   -0.0751
H        -3.8206   -1.1451   -0.5166
H        -0.8471   -1.3843   -1.8026
H        -0.1606    1.2165   -0.2762
H         0.6276    0.6642   -1.8017
H         1.3845   -1.4375   -0.6549
H         0.6162   -0.8746    0.8793
H         2.0938    1.1518    0.8776
H         2.8667    0.5860   -0.6537
H         2.8657   -0.9391    2.0388
H         3.6375   -1.5046    0.5089
H        -2.9024    1.7684   -0.7531
H        -4.1242    0.8510   -1.7438
H        -2.9369    0.9468    1.5806
H        -3.6371   -0.6845    1.9063
H        -4.6477    0.5807    1.1106
H         4.3581    1.0721    2.0528
H         5.1332    0.5041    0.5164
H         5.3025   -0.4652    2.0289
H        -2.4424   -0.2237   -2.9607

