%nprocshared=20
%mem=5GB
# m062x/6-311+g(2df,2p) opt=(verytight,gdiis) freq IOP(2/16=3)

InChI=1S/C7H15/c1-3-5-7-6-4-2/h1,3-7H2,2H3/u1

0   2
C        -0.2518   -0.4010   -0.2410
C         1.1392    0.1420    0.1071
C        -1.3527    0.5364    0.2693
C         2.2392   -0.7958   -0.4032
C        -2.7415   -0.0060   -0.0795
C         3.6253   -0.2586   -0.0588
C        -3.8276    0.9221    0.4472
H        -1.2664    0.6403    1.3737
H        -1.2235    1.5407   -0.1917
H        -0.3806   -1.4051    0.2205
H        -0.3403   -0.5054   -1.3450
H         1.2278    0.2464    1.2111
H         1.2684    1.1459   -0.3546
H         2.1187   -1.8008    0.0571
H         2.1591   -0.9021   -1.5072
H        -2.8771   -1.0089    0.3800
H        -2.8470   -0.1015   -1.1822
H         4.3998   -0.9570   -0.4399
H         3.7408   -0.1667    1.0423
H         3.7815    0.7358   -0.5286
H        -4.8288    0.4838    0.2510
H        -3.7627    1.9154   -0.0460

