%nprocshared=20
%mem=5GB
# m062x/6-311+g(2df,2p) opt=(verytight,gdiis) freq IOP(2/16=3)

InChI=1S/C8H17/c1-5-8(4)6-7(2)3/h7-8H,1,5-6H2,2-4H3/u1

0   2
C         1.0460   -0.3398    0.0198
C        -1.5332   -0.0800    0.4127
C        -0.1777    0.6113    0.1206
C         2.3256    0.4548   -0.3214
C         1.2642   -1.1229    1.3249
C        -2.6370    0.9781    0.5440
C        -1.9135   -1.0947   -0.6761
C         2.2592    1.0718   -1.7149
H         0.8808   -1.0753   -0.7966
H        -1.4781   -0.6102    1.3870
H        -0.2766    1.1777   -0.8314
H         0.0211    1.3575    0.9220
H         2.4822    1.2628    0.4262
H         3.2109   -0.2176   -0.2884
H         2.2006   -1.7181    1.2686
H         0.4366   -1.8415    1.4949
H         1.3336   -0.4306    2.1912
H        -2.7607    1.5372   -0.4085
H        -2.3857    1.6978    1.3523
H        -3.6037    0.4965    0.8047
H        -1.8777   -0.6237   -1.6819
H        -1.2274   -1.9661   -0.6554
H        -2.9396   -1.4829   -0.5005
H         3.1687    1.6796   -1.9054
H         2.1815    0.2782   -2.4882

