%nprocshared=20
%mem=5GB
# m062x/6-311+g(2df,2p) opt=(verytight,gdiis) freq IOP(2/16=3)

InChI=1S/C8H15/c1-4-5-6-7-8(2)3/h6,8H,4-5H2,1-3H3/u7

0   2
C        -2.1871    0.2940   -0.2606
C         2.5753    0.3945    0.2932
C         1.5968   -0.5594   -0.3974
C        -2.7374    0.7510    1.0917
C        -3.1408   -0.7005   -0.9251
C         3.9270   -0.2746    0.5249
C         0.2781    0.1212   -0.6247
C        -0.8411   -0.3516   -0.0648
H        -2.0993    1.1864   -0.9203
H         2.1578    0.7125    1.2738
H         2.7255    1.2993   -0.3359
H         1.4648   -1.4723    0.2262
H         2.0070   -0.8691   -1.3827
H         3.8093   -1.1676    1.1751
H         4.3764   -0.5820   -0.4434
H         4.6146    0.4400    1.0246
H        -2.8576   -0.1128    1.7811
H        -3.7247    1.2423    0.9566
H        -2.0453    1.4865    1.5553
H        -3.2720   -1.6048   -0.2919
H        -4.1336   -0.2288   -1.0869
H        -2.7394   -1.0102   -1.9140
H         0.2456    1.0061   -1.2547

