%nprocshared=20
%mem=5GB
# m062x/6-311+g(2df,2p) opt=(verytight,gdiis) freq IOP(2/16=3)

InChI=1S/C7H14O/c1-6(8)5-7(2,3)4/h5H2,1-4H3

0   1
C        -0.7787   -0.0613   -0.3364
C         0.6816   -0.3752   -0.7751
C        -0.8233    1.2077    0.5404
C        -1.3951   -1.2451    0.4393
C        -1.6239    0.1852   -1.6035
C         2.7107    0.4490    0.6480
C         1.6489   -0.5723    0.3684
H         1.0522    0.4576   -1.4136
H         0.6991   -1.2885   -1.4097
H        -1.8731    1.4744    0.7902
H        -0.2767    1.0512    1.4947
H        -0.3613    2.0671    0.0081
H        -0.9012   -1.3832    1.4234
H        -1.2991   -2.1872   -0.1425
H        -2.4745   -1.0648    0.6344
H        -1.6202   -0.7137   -2.2576
H        -2.6783    0.4164   -1.3377
H        -1.2198    1.0416   -2.1858
H         3.3307    0.1430    1.5176
H         3.3683    0.5558   -0.2399
H         2.2394    1.4283    0.8723
O         1.5943   -1.5859    1.0480

