%nprocshared=20
%mem=5GB
# m062x/6-311+g(2df,2p) opt=(verytight,gdiis) freq IOP(2/16=3)

InChI=1S/C3H3O3/c1-6-3(5)2-4/h1H3/u2

0   2
C        -1.4100   -0.1729    0.0280
C         0.9893    0.4262    0.0916
O        -0.0370   -0.4851   -0.1747
C         2.3810    0.0441   -0.1378
H        -1.5912    0.0690    1.0968
H        -2.0287   -1.0500   -0.2522
H        -1.7013    0.6908   -0.6067
O         0.7305    1.5793    0.5293
O         2.6675   -1.1013   -0.5744

