%nprocshared=20
%mem=5GB
# m062x/6-311+g(2df,2p) opt=(verytight,gdiis) freq IOP(2/16=3)

InChI=1S/C6H11O/c1-3-4-5-6(2)7/h3H,4-5H2,1-2H3/u3

0   2
C        -0.5542    0.0331   -0.3230
C         0.6496   -0.6827    0.2945
C        -3.0544    0.3572   -0.1635
C         2.9641    0.5063    0.4509
C        -1.8473   -0.4093    0.3631
C         1.9313   -0.2284   -0.3490
H        -0.4289    1.1313   -0.1980
H        -0.6145   -0.1995   -1.4092
H         0.5490   -1.7815    0.1586
H         0.6802   -0.4720    1.3863
H        -3.1830    0.1750   -1.2518
H        -3.9665    0.0154    0.3684
H        -2.9255    1.4451    0.0175
H         3.8406    0.7641   -0.1812
H         2.5251    1.4429    0.8538
H         3.3052   -0.1302    1.2939
H        -2.0064   -1.5002    0.2187
O         2.1357   -0.4666   -1.5300

